Version 4.1
SHEET 1 1404 680
WIRE 112 -560 32 -560
WIRE 32 -528 32 -560
WIRE 112 -512 112 -560
WIRE 480 -336 432 -336
WIRE 64 -320 0 -320
WIRE 208 -320 128 -320
WIRE 480 -320 480 -336
WIRE -64 -304 -96 -304
WIRE 432 -304 432 -336
WIRE -96 -288 -96 -304
WIRE -64 -224 -64 -304
WIRE 0 -224 0 -320
WIRE 64 -224 0 -224
WIRE 208 -224 208 -320
WIRE 208 -224 144 -224
WIRE 464 -192 368 -192
WIRE 624 -192 544 -192
WIRE 32 -176 32 -448
WIRE 80 -176 32 -176
WIRE 80 -144 80 -176
WIRE -224 -128 -256 -128
WIRE -64 -128 -64 -160
WIRE -64 -128 -144 -128
WIRE 0 -128 0 -224
WIRE 0 -128 -64 -128
WIRE 48 -128 0 -128
WIRE 432 -128 432 -224
WIRE 208 -112 208 -224
WIRE 208 -112 112 -112
WIRE 256 -112 208 -112
WIRE 368 -112 368 -192
WIRE 368 -112 336 -112
WIRE 400 -112 368 -112
WIRE -256 -96 -256 -128
WIRE 48 -96 -32 -96
WIRE 624 -96 624 -192
WIRE 624 -96 464 -96
WIRE 400 -80 352 -80
WIRE 624 -80 624 -96
WIRE 656 -80 624 -80
WIRE 784 -80 736 -80
WIRE 784 -64 784 -80
WIRE -32 -48 -32 -96
WIRE 80 -48 80 -80
WIRE 80 -48 64 -48
WIRE 64 -16 64 -48
WIRE 352 16 352 -80
WIRE 432 32 432 -64
WIRE 64 112 64 64
WIRE 432 128 432 112
FLAG -96 -288 0
FLAG -32 -48 0
FLAG -256 -96 0
FLAG 112 -512 0
FLAG 64 112 0
FLAG 432 128 0
FLAG 352 16 0
FLAG 480 -320 0
FLAG 784 -64 0
SYMBOL voltage 32 -432 R180
WINDOW 0 24 96 Left 2
WINDOW 3 24 16 Left 2
WINDOW 123 0 0 Left 0
WINDOW 39 0 0 Left 0
SYMATTR InstName V1
SYMATTR Value 5
SYMBOL res 160 -240 R90
WINDOW 0 0 56 VBottom 2
WINDOW 3 32 56 VTop 2
SYMATTR InstName Rf
SYMATTR Value 200k
SYMBOL cap 128 -336 R90
WINDOW 0 0 32 VBottom 2
WINDOW 3 32 32 VTop 2
SYMATTR InstName Cf
SYMATTR Value 100n
SYMBOL diode -48 -160 R180
WINDOW 0 24 64 Left 2
WINDOW 3 24 0 Left 2
SYMATTR InstName D2
SYMBOL res 352 -128 R90
WINDOW 0 0 56 VBottom 2
WINDOW 3 32 56 VTop 2
SYMATTR InstName R2
SYMATTR Value 10k
SYMBOL res 560 -208 R90
WINDOW 0 0 56 VBottom 2
WINDOW 3 32 56 VTop 2
SYMATTR InstName R4
SYMATTR Value 10k
SYMBOL voltage 64 -32 R0
WINDOW 0 24 96 Left 2
WINDOW 3 24 124 Left 2
WINDOW 123 0 0 Left 0
WINDOW 39 0 0 Left 0
SYMATTR InstName V2
SYMATTR Value -5
SYMBOL voltage 432 -208 R180
WINDOW 0 24 96 Left 2
WINDOW 3 24 16 Left 2
WINDOW 123 0 0 Left 0
WINDOW 39 0 0 Left 0
SYMATTR InstName V3
SYMATTR Value 5
SYMBOL voltage 432 16 R0
WINDOW 123 0 0 Left 0
WINDOW 39 0 0 Left 0
SYMATTR InstName V4
SYMATTR Value -5
SYMBOL res 752 -96 R90
WINDOW 0 0 56 VBottom 2
WINDOW 3 32 56 VTop 2
SYMATTR InstName R1
SYMATTR Value 1Meg
SYMBOL opamp2_TL072 432 -160 R0
SYMATTR InstName TL072
SYMATTR Value TL072
SYMBOL OpAmps\\UniversalOpAmp2 80 -112 R0
SYMATTR InstName U1
SYMATTR Value2 Avol=3162 GBW=1.6G Slew=1e9
SYMATTR SpiceLine Ilimit=50m Rail=1 Vos=1u
SYMATTR SpiceLine2 En=0 Enk=0 In=0 Ink=0 Rin=10T
SYMBOL current -224 -128 R270
WINDOW 0 32 40 VTop 2
WINDOW 3 4 40 Invisible 2
WINDOW 123 4 40 Left 2
WINDOW 39 4 40 Left 2
SYMATTR InstName I1
SYMATTR Value PULSE(0 500u 0 1n 2n 7n 1u)
TEXT 440 416 Left 2 !.include "C:\\Users\\34664\\Documents\\archivos LTSPICE\\TL072.lib"
TEXT 728 184 Left 2 !.tran 0 5 0 1u
TEXT -24 -128 VLeft 2 ;nodo1
TEXT 240 -112 VLeft 2 ;nodo 2
TEXT 640 -80 VRight 2 ;nodo 4
